/*--------------------------------*- C++ -*----------------------------------*\
  =========                 |
  \\      /  F ield         | OpenFOAM: The Open Source CFD Toolbox
   \\    /   O peration     | Website:  https://openfoam.org
    \\  /    A nd           | Version:  8
     \\/     M anipulation  |
\*---------------------------------------------------------------------------*/
FoamFile
{
    version     2.0;
    format      ascii;
    class       featureEdgeMesh;
    location    "constant/triSurface";
    object      b.eMesh;
}
// * * * * * * * * * * * * * * * * * * * * * * * * * * * * * * * * * * * * * //


// points:

3139
(
(3.0988 3.34 0.013201)
(3.0988 3.34 0.357201)
(1e-06 3.34 0.357201)
(1e-06 3.34 0.013201)
(1e-06 0.046402 0.013201)
(1e-06 0.046402 0.357201)
(3.0988 0.046402 0.357201)
(3.0988 0.046402 0.013201)
(0.350001 2.1248 0.713201)
(0.750001 2.1248 0.713201)
(0.350001 1.8048 0.713201)
(0.750001 1.8048 0.713201)
(0.685001 3.1048 0.713201)
(0.985001 3.1048 0.713201)
(0.685001 2.7048 0.713201)
(0.985001 2.7048 0.713201)
(0.286001 1.0648 0.400321)
(0.669201 1.0648 0.400321)
(0.286001 0.884802 0.400321)
(0.669201 0.884802 0.400321)
(0.264001 3.094 0.400321)
(0.456001 3.094 0.400321)
(0.264001 2.7108 0.400321)
(0.456001 2.7108 0.400321)
(1.90888 1.17592 0.713382)
(1.90888 1.8848 0.713382)
(1.2 1.8848 0.713382)
(1.2 1.17592 0.713382)
(2.01362 2.31002 0.740342)
(2.01362 1.10366 0.740342)
(1.02962 2.31002 0.740342)
(1.02962 1.10366 0.740342)
(2.01362 1.10366 0.723622)
(1.02962 1.10366 0.723622)
(1.02962 2.31002 0.723622)
(2.01362 2.31002 0.723622)
(2 1.7248 0.723201)
(1.89 1.7248 0.723201)
(1.89 1.7248 0.853201)
(2 1.7248 0.853201)
(1.89 1.3248 0.723201)
(1.89 1.3248 0.853201)
(2 1.3248 0.723201)
(2 1.3248 0.853201)
(1.50866 1.61641 3.4466)
(1.49089 1.61518 3.4512)
(1.28317 1.26258 2.707)
(1.50039 1.46906 3.4466)
(1.48262 1.46906 3.45136)
(1.2844 1.8232 2.7276)
(1.2844 1.2448 2.7276)
(1.872 1.2448 2.7276)
(1.248 1.2248 1.8532)
(1.248 1.8648 1.8532)
(1.8882 1.8648 1.8532)
(1.8882 1.2248 1.8532)
(1.49089 1.63295 3.45596)
(1.30217 1.83363 2.707)
(1.50866 1.63418 3.45136)
(1.2936 1.8324 2.7276)
(1.872 1.8324 2.7276)
(1.48385 1.45129 3.45596)
(1.50162 1.45129 3.4512)
(1.67775 1.45129 3.45596)
(1.65998 1.45129 3.4512)
(1.67775 1.62592 3.45596)
(1.65998 1.62592 3.4512)
(1.87843 1.26258 2.707)
(1.67898 1.46906 3.45136)
(1.66121 1.46906 3.4466)
(1.87843 1.81463 2.707)
(1.67898 1.60814 3.45136)
(1.66121 1.60814 3.4466)
(1.248 1.2248 2.0932)
(1.8882 1.2248 2.0932)
(1.248 1.8648 2.0932)
(1.8882 1.8648 2.0932)
(1.48385 1.45129 3.47596)
(1.67775 1.45129 3.47596)
(1.48385 1.62592 3.47596)
(1.67775 1.62592 3.47596)
(1.48385 1.62592 3.45596)
(0.110422 1.6413 0.723621)
(0.110422 1.4013 0.723621)
(1.03082 1.4013 0.704381)
(0.110422 1.4013 0.704381)
(1.03082 1.6413 0.704381)
(0.110422 1.6413 0.704381)
(2 2.2248 0.723201)
(1.89 2.2248 0.723201)
(1.89 2.2248 0.853201)
(2 2.2248 0.853201)
(1.89 1.8248 0.723201)
(1.89 1.8248 0.853201)
(2 1.8248 0.723201)
(2 1.8248 0.853201)
(1.8 1.2348 0.723201)
(1.3 1.2348 0.723201)
(1.3 1.2348 0.853201)
(1.8 1.2348 0.853201)
(1.3 1.1248 0.723201)
(1.3 1.1248 0.853201)
(1.8 1.1248 0.723201)
(1.8 1.1248 0.853201)
(1.4 0.754802 0.638201)
(1.65 0.754802 0.638201)
(1.4 0.504802 0.638201)
(1.65 0.504802 0.638201)
(2.38 0.454802 0.693201)
(2.5 0.454802 0.693201)
(2.38 0.104802 0.693201)
(2.5 0.104802 0.693201)
(1.8 1.0548 0.638201)
(2.05 1.0548 0.638201)
(1.8 0.804802 0.638201)
(2.05 0.804802 0.638201)
(1.706 3.0848 0.400321)
(2.0892 3.0848 0.400321)
(1.706 2.9048 0.400321)
(2.0892 2.9048 0.400321)
(0.766001 1.0648 0.400321)
(1.1492 1.0648 0.400321)
(0.766001 0.884802 0.400321)
(1.1492 0.884802 0.400321)
(1.875 0.504802 0.713201)
(2.175 0.504802 0.713201)
(1.875 0.104802 0.713201)
(2.175 0.104802 0.713201)
(0.860001 0.574802 0.713201)
(1.26 0.574802 0.713201)
(0.860001 0.254802 0.713201)
(1.26 0.254802 0.713201)
(2.9 0.704802 0.791201)
(2.475 0.704802 0.791201)
(2.9 2.4116 0.791201)
(2.475 2.4116 0.791201)
(2.9 0.628802 0.633201)
(2.475 0.628802 0.633201)
(2.6 1.7548 0.891201)
(2.6 1.8548 0.891201)
(2.5 1.7548 0.891201)
(2.5 1.8548 0.891201)
(2.85 1.3048 0.891201)
(2.85 1.4048 0.891201)
(2.75 1.3048 0.891201)
(2.75 1.4048 0.891201)
(2.6 0.754802 0.891201)
(2.6 0.854802 0.891201)
(2.5 0.754802 0.891201)
(2.5 0.854802 0.891201)
(1.0124 0.172802 0.815625)
(1.0124 0.172802 1.00563)
(1.0124 0.012802 1.00563)
(1.2124 0.172802 1.00563)
(1.2124 0.012802 1.00563)
(1.2124 0.172802 0.815625)
(1.2124 0.012802 0.815625)
(1.0124 0.012802 0.815625)
(0.000612166 0.012802 2.26061)
(0.000612166 0.126802 2.26061)
(0.0595911 0.012802 2.30191)
(0.0595911 0.126802 2.30191)
(1.49 1.8248 1.0068)
(1.33 1.8248 1.0068)
(1.49 1.5448 1.0068)
(1.33 1.5448 1.0068)
(1.49 1.5448 0.966801)
(1.33 1.5448 0.966801)
(1.49 1.8248 0.966801)
(1.33 1.8248 0.966801)
(1.49 1.8248 2.0948)
(1.49 1.8248 2.0548)
(1.49 1.5448 2.0548)
(1.49 1.5448 2.0948)
(1.33 1.5448 2.0948)
(1.33 1.8248 2.0948)
(1.33 1.5448 2.0548)
(1.33 1.8248 2.0548)
(1.55 1.5448 2.0948)
(1.55 1.8248 2.0948)
(1.71 1.8248 2.0948)
(1.71 1.5448 2.0948)
(1.55 1.5448 2.0548)
(1.71 1.8248 2.0548)
(1.71 1.5448 2.0548)
(1.55 1.8248 2.0548)
(1.71 1.8248 1.0068)
(1.55 1.8248 1.0068)
(1.71 1.5448 1.0068)
(1.55 1.5448 1.0068)
(1.71 1.5448 0.966801)
(1.55 1.5448 0.966801)
(1.71 1.8248 0.966801)
(1.55 1.8248 0.966801)
(2.16564 3.2496 0.815625)
(2.16564 3.2496 1.00563)
(2.16564 3.4096 1.00563)
(1.96564 3.4096 1.00563)
(1.96564 3.2496 1.00563)
(2.16564 3.4096 0.815625)
(1.96564 3.4096 0.815625)
(1.96564 3.2496 0.815625)
(3.17743 3.4096 2.26061)
(3.17743 3.2956 2.26061)
(3.11845 3.4096 2.30191)
(3.11845 3.2956 2.30191)
(1.8698 1.2632 1.8932)
(1.8698 1.814 1.8932)
(1.308 1.2602 1.9116)
(1.308 1.2602 1.8932)
(1.8536 1.2602 1.8932)
(1.8536 1.2602 1.9116)
(1.872 1.24516 2.7116)
(1.28504 1.8232 2.7116)
(1.872 1.83204 2.7116)
(1.8588 1.2632 2.7092)
(1.8698 1.2632 1.9116)
(1.8588 1.814 2.7092)
(1.8698 1.814 1.9116)
(1.308 1.8294 1.8932)
(1.308 1.8294 1.9116)
(1.8536 1.8294 1.9116)
(1.8536 1.8294 1.8932)
(2.17387 3.34 0.013201)
(2.17387 3.34 0.357201)
(2.00437 3.34 0.357201)
(2.00437 3.34 0.013201)
(1.0593 0.046402 0.013201)
(1.0593 0.046402 0.357201)
(1.21247 0.046402 0.357201)
(1.21247 0.046402 0.013201)
(2.0892 3.0848 0.357201)
(1.706 3.0848 0.357201)
(0.985001 3.1048 0.357201)
(0.685001 3.1048 0.357201)
(0.456001 3.094 0.357201)
(0.685001 2.7048 0.357201)
(0.456001 2.7108 0.357201)
(0.750001 2.1248 0.357201)
(0.350001 2.1248 0.357201)
(0.264001 2.7108 0.357201)
(0.286001 0.884802 0.357201)
(0.286001 1.0648 0.357201)
(0.350001 1.8048 0.357201)
(0.860001 0.254802 0.357201)
(1.26 0.254802 0.357201)
(1.875 0.104802 0.357201)
(2.175 0.104802 0.357201)
(2.38 0.104802 0.357201)
(2.5 0.104802 0.357201)
(2.5 0.454802 0.357201)
(2.9 0.628802 0.357201)
(2.475 0.628802 0.357201)
(2.9 2.4116 0.357201)
(0.860001 0.574802 0.357201)
(0.669201 0.884802 0.357201)
(0.766001 0.884802 0.357201)
(0.669201 1.0648 0.357201)
(0.766001 1.0648 0.357201)
(0.750001 1.8048 0.357201)
(1.1492 0.884802 0.357201)
(1.26 0.574802 0.357201)
(1.4 0.754802 0.357201)
(1.4 0.504802 0.357201)
(1.65 0.504802 0.357201)
(1.875 0.504802 0.357201)
(2.175 0.504802 0.357201)
(2.05 0.804802 0.357201)
(1.8 0.804802 0.357201)
(1.65 0.754802 0.357201)
(1.8 1.0548 0.357201)
(1.2732 1.17592 0.357201)
(1.2732 1.22392 0.357201)
(1.83568 1.17592 0.357201)
(1.83568 1.22392 0.357201)
(2.38 0.454802 0.357201)
(2.05 1.0548 0.357201)
(2.475 2.4116 0.357201)
(1.90888 1.4602 0.357201)
(1.90888 1.64848 0.357201)
(1.83568 1.64848 0.357201)
(1.1492 1.0648 0.357201)
(1.2 1.17592 0.357201)
(1.706 2.9048 0.357201)
(2.0892 2.9048 0.357201)
(1.90888 1.17592 0.357201)
(1.90888 1.22392 0.357201)
(1.90888 1.4122 0.357201)
(1.83568 1.4122 0.357201)
(1.2 1.8368 0.357201)
(1.2 1.69648 0.357201)
(1.2 1.64848 0.357201)
(1.2 1.4602 0.357201)
(1.2732 1.4602 0.357201)
(0.985001 2.7048 0.357201)
(1.90888 1.8848 0.357201)
(1.83568 1.8848 0.357201)
(1.2732 1.8848 0.357201)
(1.2 1.8848 0.357201)
(1.2 1.4122 0.357201)
(1.2 1.22392 0.357201)
(1.2732 1.4122 0.357201)
(1.83568 1.4602 0.357201)
(1.2732 1.64848 0.357201)
(1.2732 1.69648 0.357201)
(1.83568 1.69648 0.357201)
(1.2732 1.8368 0.357201)
(1.83568 1.8368 0.357201)
(1.90888 1.69648 0.357201)
(1.90888 1.8368 0.357201)
(0.264001 3.094 0.357201)
(1.83568 1.4602 0.613382)
(1.90888 1.4602 0.613382)
(1.83568 1.69648 0.613382)
(1.90888 1.69648 0.613382)
(1.90888 1.22392 0.613382)
(1.90888 1.4122 0.613382)
(1.90888 1.64848 0.613382)
(1.90888 1.8368 0.613382)
(1.83568 1.8368 0.613382)
(1.83568 1.8848 0.613382)
(1.2732 1.8848 0.613382)
(1.2732 1.8368 0.613382)
(1.2 1.8368 0.613382)
(1.2732 1.64848 0.613382)
(1.2 1.64848 0.613382)
(1.2732 1.4122 0.613382)
(1.2 1.4122 0.613382)
(1.2 1.69648 0.613382)
(1.2 1.4602 0.613382)
(1.2 1.22392 0.613382)
(1.83568 1.17592 0.613382)
(1.2732 1.17592 0.613382)
(1.2732 1.22392 0.613382)
(2 1.7248 0.740342)
(2 1.3248 0.740342)
(1.8772 1.2448 0.740342)
(1.8772 1.2632 0.740342)
(1.89 1.3248 0.740342)
(1.8536 1.2632 0.740342)
(1.8 1.2348 0.740342)
(1.8536 1.2448 0.740342)
(1.8 1.1248 0.740342)
(1.89 2.2248 0.740342)
(2 2.2248 0.740342)
(2 1.8248 0.740342)
(1.2844 1.814 0.740342)
(1.2844 1.8324 0.740342)
(1.308 1.8324 0.740342)
(1.3 1.1248 0.740342)
(1.2844 1.2448 0.740342)
(1.2844 1.2632 0.740342)
(1.89 1.7248 0.740342)
(1.308 1.814 0.740342)
(1.308 1.2632 0.740342)
(1.89 1.8248 0.740342)
(1.8772 1.814 0.740342)
(1.8536 1.814 0.740342)
(1.8772 1.8324 0.740342)
(1.8536 1.8324 0.740342)
(1.3 1.2348 0.740342)
(1.308 1.2448 0.740342)
(1.8 1.1248 0.723622)
(1.3 1.1248 0.723622)
(1.2844 1.2448 0.723622)
(1.03082 1.4013 0.723621)
(1.2844 1.2632 0.723622)
(1.03082 1.6413 0.723621)
(1.2844 1.814 0.723622)
(1.2844 1.8324 0.723622)
(1.02962 1.6413 0.723622)
(1.8 1.2348 0.723622)
(1.8536 1.2448 0.723622)
(1.8772 1.2448 0.723622)
(2 1.3248 0.723622)
(2 1.7248 0.723622)
(1.3 1.2348 0.723622)
(1.308 1.2448 0.723622)
(1.308 1.2632 0.723622)
(1.308 1.814 0.723622)
(2 1.8248 0.723622)
(1.89 1.7248 0.723622)
(1.89 1.8248 0.723622)
(1.8772 1.814 0.723622)
(1.8772 1.8324 0.723622)
(2 2.2248 0.723622)
(1.89 2.2248 0.723622)
(1.308 1.8324 0.723622)
(1.8536 1.8324 0.723622)
(1.8536 1.814 0.723622)
(1.8772 1.2632 0.723622)
(1.89 1.3248 0.723622)
(1.8536 1.2632 0.723622)
(1.02962 1.4013 0.723622)
(1.8536 1.2632 0.713382)
(1.8536 1.2448 0.713382)
(1.8536 1.2448 1.4772)
(1.8536 1.2632 1.4772)
(1.8772 1.2632 0.713382)
(1.8772 1.2632 1.8532)
(1.872 1.2632 1.4772)
(1.872 1.2632 1.4956)
(1.8698 1.2632 1.8532)
(1.8536 1.2632 1.4956)
(1.8536 1.2632 1.8932)
(1.8772 1.2448 0.713382)
(1.308 1.2632 0.713382)
(1.2844 1.2632 0.713382)
(1.308 1.2632 1.4772)
(1.3028 1.2632 1.4772)
(1.2844 1.2632 1.4772)
(1.308 1.2632 1.4956)
(1.3028 1.2632 1.4956)
(1.308 1.2632 1.8932)
(1.3028 1.2632 1.8932)
(1.308 1.2632 1.9116)
(1.3028 1.2632 1.9116)
(1.308 1.2632 2.3092)
(1.3028 1.2632 2.3092)
(1.308 1.2632 2.3276)
(1.3028 1.2632 2.3276)
(1.30155 1.2632 2.7045)
(1.2844 1.2632 2.3276)
(1.2844 1.2632 1.4956)
(1.2844 1.2632 1.8932)
(1.2844 1.2632 1.9116)
(1.2844 1.2632 2.3092)
(1.308 1.2632 2.7092)
(1.30774 1.2632 2.7276)
(1.8536 1.2632 2.7276)
(1.8536 1.2632 2.7092)
(1.8536 1.2632 2.3276)
(1.8536 1.2632 2.3092)
(1.8536 1.2632 1.9116)
(1.2844 1.814 1.4772)
(1.3028 1.814 1.4772)
(1.308 1.814 1.4772)
(1.8536 1.814 1.4772)
(1.8536 1.814 1.4956)
(1.308 1.814 1.4956)
(1.3028 1.814 1.4956)
(1.308 1.814 1.8932)
(1.3028 1.814 1.8932)
(1.308 1.814 1.9116)
(1.3028 1.814 1.9116)
(1.308 1.814 2.3092)
(1.3028 1.814 2.3092)
(1.308 1.814 2.3276)
(1.3028 1.814 2.3276)
(1.8536 1.814 1.8932)
(1.8536 1.814 1.9116)
(1.8536 1.814 2.3092)
(1.8536 1.814 2.3276)
(1.308 1.814 2.7092)
(1.30887 1.814 2.7276)
(1.8536 1.814 2.7092)
(1.8536 1.814 2.7276)
(1.28506 1.814 2.7092)
(1.2844 1.814 2.7092)
(1.2844 1.814 2.3276)
(1.2844 1.814 2.3092)
(1.2844 1.814 1.9116)
(1.2844 1.814 1.8932)
(1.2844 1.814 1.4956)
(1.3028 1.26451 2.7092)
(1.2844 1.26323 2.7092)
(1.3028 1.814 2.7092)
(1.3028 1.80907 2.7276)
(1.29016 1.80907 2.7276)
(1.2844 1.26258 2.70667)
(1.3028 1.26927 2.7276)
(1.28869 1.26829 2.7276)
(1.308 1.2448 0.713382)
(1.2844 1.2448 0.713382)
(1.308 1.814 0.713382)
(1.308 1.8324 0.713382)
(1.308 1.8324 1.4772)
(1.2844 1.814 0.713382)
(1.2844 1.8324 0.713382)
(1.2844 1.2448 1.8532)
(1.2844 1.8294 1.8532)
(1.2844 1.8324 1.8532)
(1.2844 1.8294 2.0932)
(1.2844 1.8324 2.0932)
(1.2844 1.8324 2.7116)
(1.2844 1.8232 2.7116)
(1.2844 1.2448 2.7116)
(1.2844 1.2602 1.8532)
(1.2844 1.2602 2.0932)
(1.2844 1.2448 2.0932)
(1.8772 1.814 0.713382)
(1.8772 1.8324 0.713382)
(1.8772 1.8324 1.8532)
(1.8772 1.814 1.8532)
(1.8536 1.814 0.713382)
(1.872 1.814 1.4772)
(1.872 1.814 1.4956)
(1.8698 1.814 1.8532)
(1.8536 1.8324 0.713382)
(1.308 1.8324 1.4956)
(1.308 1.8324 1.8532)
(1.8536 1.8324 1.4772)
(1.8536 1.8324 1.4956)
(1.8536 1.8324 1.8532)
(1.83568 1.4122 0.613382)
(1.83568 1.22392 0.613382)
(1.2732 1.4602 0.613382)
(1.83568 1.64848 0.613382)
(1.2732 1.69648 0.613382)
(1.308 1.2448 1.4772)
(1.308 1.2448 1.4956)
(1.308 1.2448 1.8532)
(1.8536 1.2448 1.4956)
(1.8772 1.2448 1.8532)
(1.8536 1.2448 1.8532)
(1.308 1.2602 2.0932)
(1.308 1.2448 2.3092)
(1.308 1.2448 2.0932)
(1.308 1.2448 2.3276)
(1.308 1.2448 2.7092)
(1.308 1.2602 1.8532)
(1.8536 1.2448 2.3276)
(1.8536 1.2448 2.3092)
(1.8536 1.2448 2.7092)
(1.872 1.2448 2.7116)
(1.8772 1.2448 2.7116)
(1.8772 1.2448 2.0932)
(1.8536 1.2448 2.0932)
(1.2834 1.2602 1.8532)
(1.2834 1.8294 1.8532)
(1.8536 1.2602 1.8532)
(1.8536 1.8294 1.8532)
(1.308 1.8294 1.8532)
(1.8536 1.2602 2.0932)
(1.2834 1.2602 2.0932)
(1.28918 1.8232 2.7276)
(1.2936 1.82811 2.7276)
(1.30789 1.82811 2.7276)
(1.872 1.8324 2.7116)
(1.8772 1.8324 2.7116)
(1.8536 1.8324 2.3276)
(1.8536 1.8324 2.3092)
(1.308 1.8324 2.3276)
(1.308 1.8324 2.3092)
(1.308 1.8324 2.0932)
(1.8536 1.8324 2.7092)
(1.8772 1.8324 2.0932)
(1.8536 1.8324 2.0932)
(1.308 1.8324 2.7092)
(1.30217 1.8324 2.70667)
(1.28869 1.24924 2.7276)
(1.30774 1.25056 2.7276)
(1.85386 1.25056 2.7276)
(1.872 1.2493 2.7276)
(1.85386 1.26961 2.7276)
(1.85386 1.80759 2.7276)
(1.872 1.26835 2.7276)
(1.872 1.80885 2.7276)
(1.85386 1.82664 2.7276)
(1.872 1.8279 2.7276)
(1.8698 1.2632 2.0932)
(1.872 1.2632 2.3092)
(1.8772 1.2632 2.0932)
(1.872 1.2632 2.3276)
(1.8772 1.26258 2.70667)
(1.872 1.26359 2.7092)
(1.8588 1.26451 2.7092)
(1.8588 1.8127 2.7092)
(1.872 1.81361 2.7092)
(1.8772 1.814 2.0932)
(1.872 1.814 2.3276)
(1.872 1.814 2.3092)
(1.8698 1.814 2.0932)
(1.8772 1.81463 2.70667)
(1.308 1.8294 2.0932)
(1.2834 1.8294 2.0932)
(1.8536 1.8294 2.0932)
(2.9 0.704802 0.633201)
(2.475 0.704802 0.633201)
(2.85 1.4048 0.791201)
(2.85 1.3048 0.791201)
(2.75 1.3048 0.791201)
(2.6 0.854802 0.791201)
(2.6 0.754802 0.791201)
(2.6 1.8548 0.791201)
(2.5 1.7548 0.791201)
(2.5 1.8548 0.791201)
(2.5 0.754802 0.791201)
(2.5 0.854802 0.791201)
(2.6 1.7548 0.791201)
(2.75 1.4048 0.791201)
(1.0124 0.126802 0.815625)
(1.0124 0.126802 0.941153)
(1.0124 0.012802 0.941153)
(1.49 1.62598 2.0548)
(1.49 1.62598 2.0948)
(1.49 1.60362 2.0548)
(1.49 1.60362 2.0948)
(1.49 1.73362 2.0948)
(1.49 1.73362 2.0548)
(1.49 1.75598 2.0548)
(1.49 1.75598 2.0948)
(1.71 1.62598 2.0548)
(1.71 1.60362 2.0548)
(1.71 1.60362 2.0948)
(1.71 1.62598 2.0948)
(1.55 1.73362 2.0948)
(1.55 1.75598 2.0948)
(1.71 1.75598 2.0948)
(1.71 1.73362 2.0948)
(1.71 1.73362 2.0548)
(1.55 1.75598 2.0548)
(1.55 1.73362 2.0548)
(1.71 1.75598 2.0548)
(2.16564 3.2956 0.815625)
(2.16564 3.2956 0.941153)
(2.16564 3.4096 0.941153)
(2.17538 3.31831 0.013201)
(2.17552 3.3232 1e-06)
(2.17258 3.34556 1e-06)
(2.16394 3.3664 0.803619)
(2.17258 3.34556 0.803619)
(2.17258 3.30084 1e-06)
(2.17143 3.29693 0.013201)
(2.16394 3.28 1e-06)
(2.16226 3.27721 0.013201)
(2.15021 3.26211 1e-06)
(2.14846 3.2604 0.013201)
(2.13232 3.24838 1e-06)
(2.1309 3.24757 0.013201)
(2.11148 3.23974 1e-06)
(2.11069 3.23954 0.013201)
(2.08912 3.2368 1e-06)
(2.08912 3.2368 0.013201)
(2.06755 3.23954 0.013201)
(2.06676 3.23974 1e-06)
(2.04734 3.24757 0.013201)
(2.04592 3.24838 1e-06)
(2.02978 3.2604 0.013201)
(2.02803 3.26211 1e-06)
(2.01598 3.27721 0.013201)
(2.0143 3.28 1e-06)
(2.00681 3.29693 0.013201)
(2.00566 3.30084 1e-06)
(2.00286 3.31831 0.013201)
(2.00272 3.3232 1e-06)
(2.00566 3.34556 1e-06)
(2.00272 3.3232 0.803619)
(2.00566 3.34556 0.803619)
(2.00286 3.31831 0.357201)
(2.00566 3.30084 0.803619)
(2.00681 3.29693 0.357201)
(2.0143 3.28 0.803619)
(2.01598 3.27721 0.357201)
(2.02803 3.26211 0.803619)
(2.02978 3.2604 0.357201)
(2.04592 3.24838 0.803619)
(2.04734 3.24757 0.357201)
(2.06676 3.23974 0.803619)
(2.06755 3.23954 0.357201)
(2.08912 3.2368 0.803619)
(2.08912 3.2368 0.357201)
(2.11069 3.23954 0.357201)
(2.11148 3.23974 0.803619)
(2.1309 3.24757 0.357201)
(2.13232 3.24838 0.803619)
(2.14846 3.2604 0.357201)
(2.15021 3.26211 0.803619)
(2.16226 3.27721 0.357201)
(2.16394 3.28 0.803619)
(2.17143 3.29693 0.357201)
(2.17258 3.30084 0.803619)
(2.17538 3.31831 0.357201)
(2.17552 3.3232 0.803619)
(2.16394 3.3664 1e-06)
(2.15021 3.38429 0.803619)
(2.15021 3.38429 1e-06)
(2.13232 3.39803 0.803619)
(2.13232 3.39803 1e-06)
(2.11148 3.40666 0.803619)
(2.11148 3.40666 1e-06)
(2.08912 3.4096 0.803619)
(2.08912 3.4096 1e-06)
(2.06676 3.40666 0.803619)
(2.06676 3.40666 1e-06)
(2.04592 3.39803 0.803619)
(2.04592 3.39803 1e-06)
(2.02803 3.38429 0.803619)
(2.02803 3.38429 1e-06)
(2.0143 3.3664 0.803619)
(2.0143 3.3664 1e-06)
(1.05166 0.0671408 0.013201)
(1.05243 0.064039 1e-06)
(1.06106 0.043201 1e-06)
(1.07479 0.025307 1e-06)
(1.09268 0.0115764 0.803619)
(1.07479 0.025307 0.803619)
(1.09268 0.0115764 1e-06)
(1.11352 0.00294501 0.803619)
(1.11352 0.00294501 1e-06)
(1.13588 1e-06 0.803619)
(1.13588 1e-06 1e-06)
(1.15824 0.00294501 0.803619)
(1.15824 0.00294501 1e-06)
(1.17908 0.0115764 0.803619)
(1.17908 0.0115764 1e-06)
(1.19698 0.025307 0.803619)
(1.19698 0.025307 1e-06)
(1.21071 0.043201 1e-06)
(1.21934 0.064039 1e-06)
(1.22011 0.0671408 0.013201)
(1.22228 0.086401 1e-06)
(1.22224 0.0891401 0.013201)
(1.21934 0.108763 1e-06)
(1.21872 0.11096 0.013201)
(1.21071 0.129601 1e-06)
(1.20978 0.131173 0.013201)
(1.19698 0.147495 1e-06)
(1.196 0.148456 0.013201)
(1.17908 0.161226 1e-06)
(1.17829 0.161678 0.013201)
(1.15824 0.169857 1e-06)
(1.1578 0.169974 0.013201)
(1.13588 0.172801 1e-06)
(1.13588 0.172801 0.013201)
(1.11396 0.169974 0.013201)
(1.11352 0.169857 1e-06)
(1.09348 0.161678 0.013201)
(1.09268 0.161226 1e-06)
(1.07576 0.148456 0.013201)
(1.07479 0.147495 1e-06)
(1.06199 0.131173 0.013201)
(1.06106 0.129601 1e-06)
(1.05305 0.11096 0.013201)
(1.05243 0.108763 1e-06)
(1.04953 0.0891401 0.013201)
(1.04948 0.086401 1e-06)
(1.22011 0.0671408 0.357201)
(1.21934 0.064039 0.803619)
(1.21071 0.043201 0.803619)
(1.22228 0.086401 0.803619)
(1.22224 0.0891401 0.357201)
(1.21934 0.108763 0.803619)
(1.21872 0.11096 0.357201)
(1.21071 0.129601 0.803619)
(1.20978 0.131173 0.357201)
(1.19698 0.147495 0.803619)
(1.196 0.148456 0.357201)
(1.17908 0.161226 0.803619)
(1.17829 0.161678 0.357201)
(1.15824 0.169857 0.803619)
(1.1578 0.169974 0.357201)
(1.13588 0.172801 0.803619)
(1.13588 0.172801 0.357201)
(1.11396 0.169974 0.357201)
(1.11352 0.169857 0.803619)
(1.09348 0.161678 0.357201)
(1.09268 0.161226 0.803619)
(1.07576 0.148456 0.357201)
(1.07479 0.147495 0.803619)
(1.06199 0.131173 0.357201)
(1.06106 0.129601 0.803619)
(1.05305 0.11096 0.357201)
(1.05243 0.108763 0.803619)
(1.04953 0.0891401 0.357201)
(1.04948 0.086401 0.803619)
(1.05166 0.0671408 0.357201)
(1.05243 0.064039 0.803619)
(1.06106 0.043201 0.803619)
(2.3625 3.23806 0.357201)
(2.39265 3.25054 0.357201)
(2.425 3.2548 0.357201)
(2.33661 3.21819 0.357201)
(2.31675 3.1923 0.357201)
(2.30426 3.16215 0.357201)
(2.3 3.1298 0.357201)
(0.189626 1.60685 0.357201)
(0.190226 1.6083 0.357201)
(0.189422 1.6053 0.357201)
(0.189626 1.43175 0.357201)
(0.189422 1.4333 0.357201)
(0.190226 1.4303 0.357201)
(0.191179 1.42906 0.357201)
(0.192422 1.42811 0.357201)
(0.193869 1.42751 0.357201)
(0.195422 1.4273 0.357201)
(0.196975 1.42751 0.357201)
(0.198422 1.42811 0.357201)
(0.199665 1.42906 0.357201)
(0.200618 1.4303 0.357201)
(0.201218 1.43175 0.357201)
(0.550226 1.4303 0.357201)
(0.549626 1.43175 0.357201)
(0.201422 1.4333 0.357201)
(0.549422 1.4333 0.357201)
(0.201218 1.43485 0.357201)
(0.549626 1.43485 0.357201)
(0.200618 1.4363 0.357201)
(0.550226 1.4363 0.357201)
(0.201218 1.60375 0.357201)
(0.200618 1.6023 0.357201)
(0.550226 1.6023 0.357201)
(0.549626 1.60375 0.357201)
(0.201422 1.6053 0.357201)
(0.549422 1.6053 0.357201)
(0.549626 1.60685 0.357201)
(0.550226 1.6083 0.357201)
(2.54574 3.09745 0.357201)
(2.53325 3.0673 0.357201)
(2.55 3.1298 0.357201)
(2.54574 3.16215 0.357201)
(2.53325 3.1923 0.357201)
(2.51339 3.21819 0.357201)
(2.4875 3.23806 0.357201)
(2.45735 3.25054 0.357201)
(0.560618 1.4303 0.357201)
(0.559665 1.42906 0.357201)
(0.561218 1.43175 0.357201)
(0.910226 1.4303 0.357201)
(0.909626 1.43175 0.357201)
(0.561422 1.4333 0.357201)
(0.909422 1.4333 0.357201)
(0.561218 1.43485 0.357201)
(0.909626 1.43485 0.357201)
(0.560618 1.4363 0.357201)
(0.910226 1.4363 0.357201)
(0.561218 1.60375 0.357201)
(0.560618 1.6023 0.357201)
(0.910226 1.6023 0.357201)
(0.909626 1.60375 0.357201)
(0.561422 1.6053 0.357201)
(0.909422 1.6053 0.357201)
(0.909626 1.60685 0.357201)
(0.910226 1.6083 0.357201)
(0.916975 1.42751 0.357201)
(0.915422 1.4273 0.357201)
(0.913869 1.42751 0.357201)
(1.71339 2.61819 0.357201)
(1.73325 2.5923 0.357201)
(1.74574 2.56215 0.357201)
(1.5625 2.63806 0.357201)
(1.59265 2.65054 0.357201)
(2.31675 3.0673 0.357201)
(2.30426 3.09745 0.357201)
(0.551179 1.43754 0.357201)
(0.551179 1.60106 0.357201)
(0.552422 1.4385 0.357201)
(0.552422 1.60011 0.357201)
(0.553869 1.4391 0.357201)
(0.553869 1.59951 0.357201)
(0.555422 1.4393 0.357201)
(0.555422 1.5993 0.357201)
(0.556975 1.4391 0.357201)
(0.556975 1.59951 0.357201)
(0.558422 1.4385 0.357201)
(0.558422 1.60011 0.357201)
(0.559665 1.43754 0.357201)
(0.559665 1.60106 0.357201)
(0.558422 1.42811 0.357201)
(0.556975 1.42751 0.357201)
(0.555422 1.4273 0.357201)
(0.553869 1.42751 0.357201)
(0.552422 1.42811 0.357201)
(0.551179 1.42906 0.357201)
(0.191179 1.60954 0.357201)
(0.192422 1.6105 0.357201)
(0.193869 1.6111 0.357201)
(0.195422 1.6113 0.357201)
(0.196975 1.6111 0.357201)
(0.198422 1.6105 0.357201)
(0.199665 1.60954 0.357201)
(0.200618 1.6083 0.357201)
(0.201218 1.60685 0.357201)
(0.199665 1.60106 0.357201)
(0.199665 1.43754 0.357201)
(0.198422 1.60011 0.357201)
(0.198422 1.4385 0.357201)
(0.196975 1.59951 0.357201)
(0.196975 1.4391 0.357201)
(0.195422 1.5993 0.357201)
(0.195422 1.4393 0.357201)
(0.193869 1.4391 0.357201)
(0.193869 1.59951 0.357201)
(0.192422 1.4385 0.357201)
(0.192422 1.60011 0.357201)
(0.191179 1.43754 0.357201)
(0.191179 1.60106 0.357201)
(0.190226 1.4363 0.357201)
(0.190226 1.6023 0.357201)
(0.189626 1.43485 0.357201)
(0.189626 1.60375 0.357201)
(0.911179 1.60954 0.357201)
(0.912422 1.6105 0.357201)
(0.913869 1.6111 0.357201)
(0.915422 1.6113 0.357201)
(0.916975 1.6111 0.357201)
(0.918422 1.6105 0.357201)
(0.919665 1.60954 0.357201)
(0.920618 1.6083 0.357201)
(0.921218 1.60685 0.357201)
(0.921422 1.6053 0.357201)
(0.921218 1.60375 0.357201)
(0.920618 1.6023 0.357201)
(0.920618 1.4363 0.357201)
(0.921218 1.43485 0.357201)
(0.919665 1.60106 0.357201)
(0.919665 1.43754 0.357201)
(0.918422 1.60011 0.357201)
(0.918422 1.4385 0.357201)
(0.916975 1.59951 0.357201)
(0.916975 1.4391 0.357201)
(0.915422 1.5993 0.357201)
(0.915422 1.4393 0.357201)
(0.913869 1.59951 0.357201)
(0.913869 1.4391 0.357201)
(0.912422 1.60011 0.357201)
(0.912422 1.4385 0.357201)
(0.911179 1.60106 0.357201)
(0.911179 1.43754 0.357201)
(2.51339 3.04141 0.357201)
(2.4875 3.02155 0.357201)
(2.45735 3.00906 0.357201)
(2.425 3.0048 0.357201)
(2.39265 3.00906 0.357201)
(1.75 2.5298 0.357201)
(2.3625 3.02155 0.357201)
(2.33661 3.04141 0.357201)
(1.50426 2.49745 0.357201)
(1.5 2.5298 0.357201)
(1.50426 2.56215 0.357201)
(1.51675 2.5923 0.357201)
(1.53661 2.61819 0.357201)
(1.625 2.6548 0.357201)
(1.65735 2.65054 0.357201)
(1.6875 2.63806 0.357201)
(1.74574 2.49745 0.357201)
(1.73325 2.4673 0.357201)
(1.71339 2.44141 0.357201)
(1.6875 2.42155 0.357201)
(1.65735 2.40906 0.357201)
(1.625 2.4048 0.357201)
(1.59265 2.40906 0.357201)
(1.5625 2.42155 0.357201)
(1.53661 2.44141 0.357201)
(1.51675 2.4673 0.357201)
(0.551179 1.60954 0.357201)
(0.552422 1.6105 0.357201)
(0.553869 1.6111 0.357201)
(0.555422 1.6113 0.357201)
(0.556975 1.6111 0.357201)
(0.558422 1.6105 0.357201)
(0.559665 1.60954 0.357201)
(0.560618 1.6083 0.357201)
(0.561218 1.60685 0.357201)
(0.921422 1.4333 0.357201)
(0.921218 1.43175 0.357201)
(0.920618 1.4303 0.357201)
(0.919665 1.42906 0.357201)
(0.918422 1.42811 0.357201)
(0.912422 1.42811 0.357201)
(0.911179 1.42906 0.357201)
(1.2844 1.2632 2.70909)
(1.3041 1.814 2.70918)
(1.28505 1.814 2.70918)
(1.2844 1.26385 2.7116)
(1.2936 1.8324 2.7116)
(1.30345 1.8324 2.7116)
(1.8772 1.2632 2.70909)
(1.8772 1.814 2.70909)
(0.189626 1.43175 0.702902)
(0.189422 1.4333 0.702902)
(0.189626 1.43485 0.702902)
(0.190226 1.4363 0.702902)
(0.191179 1.43754 0.702902)
(0.192422 1.4385 0.702902)
(0.193869 1.4391 0.702902)
(0.195422 1.4393 0.702902)
(0.196975 1.4391 0.702902)
(0.198422 1.4385 0.702902)
(0.199665 1.43754 0.702902)
(0.200618 1.4363 0.702902)
(0.201218 1.43485 0.702902)
(0.201422 1.4333 0.702902)
(0.201218 1.43175 0.702902)
(0.200618 1.4303 0.702902)
(0.199665 1.42906 0.702902)
(0.198422 1.42811 0.702902)
(0.196975 1.42751 0.702902)
(0.195422 1.4273 0.702902)
(0.193869 1.42751 0.702902)
(0.192422 1.42811 0.702902)
(0.191179 1.42906 0.702902)
(0.190226 1.4303 0.702902)
(0.909626 1.43175 0.702902)
(0.909422 1.4333 0.702902)
(0.909626 1.43485 0.702902)
(0.910226 1.4363 0.702902)
(0.911179 1.43754 0.702902)
(0.912422 1.4385 0.702902)
(0.913869 1.4391 0.702902)
(0.915422 1.4393 0.702902)
(0.916975 1.4391 0.702902)
(0.918422 1.4385 0.702902)
(0.919665 1.43754 0.702902)
(0.920618 1.4363 0.702902)
(0.921218 1.43485 0.702902)
(0.921422 1.4333 0.702902)
(0.921218 1.43175 0.702902)
(0.920618 1.4303 0.702902)
(0.919665 1.42906 0.702902)
(0.918422 1.42811 0.702902)
(0.916975 1.42751 0.702902)
(0.915422 1.4273 0.702902)
(0.913869 1.42751 0.702902)
(0.912422 1.42811 0.702902)
(0.911179 1.42906 0.702902)
(0.910226 1.4303 0.702902)
(0.549626 1.60375 0.702902)
(0.549422 1.6053 0.702902)
(0.549626 1.60685 0.702902)
(0.550226 1.6083 0.702902)
(0.551179 1.60954 0.702902)
(0.552422 1.6105 0.702902)
(0.553869 1.6111 0.702902)
(0.555422 1.6113 0.702902)
(0.556975 1.6111 0.702902)
(0.558422 1.6105 0.702902)
(0.559665 1.60954 0.702902)
(0.560618 1.6083 0.702902)
(0.561218 1.60685 0.702902)
(0.561422 1.6053 0.702902)
(0.561218 1.60375 0.702902)
(0.560618 1.6023 0.702902)
(0.559665 1.60106 0.702902)
(0.558422 1.60011 0.702902)
(0.556975 1.59951 0.702902)
(0.555422 1.5993 0.702902)
(0.553869 1.59951 0.702902)
(0.552422 1.60011 0.702902)
(0.551179 1.60106 0.702902)
(0.550226 1.6023 0.702902)
(1.50426 2.49745 0.873201)
(1.5 2.5298 0.873201)
(1.50426 2.56215 0.873201)
(1.51675 2.5923 0.873201)
(1.53661 2.61819 0.873201)
(1.5625 2.63806 0.873201)
(1.59265 2.65054 0.873201)
(1.625 2.6548 0.873201)
(1.65735 2.65054 0.873201)
(1.6875 2.63806 0.873201)
(1.71339 2.61819 0.873201)
(1.73325 2.5923 0.873201)
(1.74574 2.56215 0.873201)
(1.75 2.5298 0.873201)
(1.74574 2.49745 0.873201)
(1.73325 2.4673 0.873201)
(1.71339 2.44141 0.873201)
(1.6875 2.42155 0.873201)
(1.65735 2.40906 0.873201)
(1.625 2.4048 0.873201)
(1.59265 2.40906 0.873201)
(1.5625 2.42155 0.873201)
(1.53661 2.44141 0.873201)
(1.51675 2.4673 0.873201)
(2.30426 3.09745 0.873201)
(2.3 3.1298 0.873201)
(2.30426 3.16215 0.873201)
(2.31675 3.1923 0.873201)
(2.33661 3.21819 0.873201)
(2.3625 3.23806 0.873201)
(2.39265 3.25054 0.873201)
(2.425 3.2548 0.873201)
(2.45735 3.25054 0.873201)
(2.4875 3.23806 0.873201)
(2.51339 3.21819 0.873201)
(2.53325 3.1923 0.873201)
(2.54574 3.16215 0.873201)
(2.55 3.1298 0.873201)
(2.54574 3.09745 0.873201)
(2.53325 3.0673 0.873201)
(2.51339 3.04141 0.873201)
(2.4875 3.02155 0.873201)
(2.45735 3.00906 0.873201)
(2.425 3.0048 0.873201)
(2.39265 3.00906 0.873201)
(2.3625 3.02155 0.873201)
(2.33661 3.04141 0.873201)
(2.31675 3.0673 0.873201)
(0.909626 1.60375 0.702902)
(0.909422 1.6053 0.702902)
(0.909626 1.60685 0.702902)
(0.910226 1.6083 0.702902)
(0.911179 1.60954 0.702902)
(0.912422 1.6105 0.702902)
(0.913869 1.6111 0.702902)
(0.915422 1.6113 0.702902)
(0.916975 1.6111 0.702902)
(0.918422 1.6105 0.702902)
(0.919665 1.60954 0.702902)
(0.920618 1.6083 0.702902)
(0.921218 1.60685 0.702902)
(0.921422 1.6053 0.702902)
(0.921218 1.60375 0.702902)
(0.920618 1.6023 0.702902)
(0.919665 1.60106 0.702902)
(0.918422 1.60011 0.702902)
(0.916975 1.59951 0.702902)
(0.915422 1.5993 0.702902)
(0.913869 1.59951 0.702902)
(0.912422 1.60011 0.702902)
(0.911179 1.60106 0.702902)
(0.910226 1.6023 0.702902)
(0.189626 1.60375 0.702902)
(0.189422 1.6053 0.702902)
(0.189626 1.60685 0.702902)
(0.190226 1.6083 0.702902)
(0.191179 1.60954 0.702902)
(0.192422 1.6105 0.702902)
(0.193869 1.6111 0.702902)
(0.195422 1.6113 0.702902)
(0.196975 1.6111 0.702902)
(0.198422 1.6105 0.702902)
(0.199665 1.60954 0.702902)
(0.200618 1.6083 0.702902)
(0.201218 1.60685 0.702902)
(0.201422 1.6053 0.702902)
(0.201218 1.60375 0.702902)
(0.200618 1.6023 0.702902)
(0.199665 1.60106 0.702902)
(0.198422 1.60011 0.702902)
(0.196975 1.59951 0.702902)
(0.195422 1.5993 0.702902)
(0.193869 1.59951 0.702902)
(0.192422 1.60011 0.702902)
(0.191179 1.60106 0.702902)
(0.190226 1.6023 0.702902)
(0.549626 1.43175 0.702902)
(0.549422 1.4333 0.702902)
(0.549626 1.43485 0.702902)
(0.550226 1.4363 0.702902)
(0.551179 1.43754 0.702902)
(0.552422 1.4385 0.702902)
(0.553869 1.4391 0.702902)
(0.555422 1.4393 0.702902)
(0.556975 1.4391 0.702902)
(0.558422 1.4385 0.702902)
(0.559665 1.43754 0.702902)
(0.560618 1.4363 0.702902)
(0.561218 1.43485 0.702902)
(0.561422 1.4333 0.702902)
(0.561218 1.43175 0.702902)
(0.560618 1.4303 0.702902)
(0.559665 1.42906 0.702902)
(0.558422 1.42811 0.702902)
(0.556975 1.42751 0.702902)
(0.555422 1.4273 0.702902)
(0.553869 1.42751 0.702902)
(0.552422 1.42811 0.702902)
(0.551179 1.42906 0.702902)