/*--------------------------------*- C++ -*----------------------------------*\
  =========                 |
  \\      /  F ield         | OpenFOAM: The Open Source CFD Toolbox
   \\    /   O peration     | Website:  https://openfoam.org
    \\  /    A nd           | Version:  8
     \\/     M anipulation  |
\*---------------------------------------------------------------------------*/
FoamFile
{
    version     2.0;
    format      ascii;
    class       volScalarField;
    object      p;
}
// * * * * * * * * * * * * * * * * * * * * * * * * * * * * * * * * * * * * * //

dimensions      [1 -1 -2 0 0 0 0];

internalField   uniform 101325;

boundaryField
{
  #includeEtc "caseDicts/setConstraintTypes"
movingwall
    {
           type            totalPressure;        
        p0              $internalField;
        U               U;
        phi             phi;
        rho             rho;
        psi             none;
        gamma           0;
        value           $internalField;
        
    }
  wall
    {
        type           zeroGradient;
        
    }
}

// ************************************************************************* //
