/*--------------------------------*- C++ -*----------------------------------*\
  =========                 |
  \\      /  F ield         | OpenFOAM: The Open Source CFD Toolbox
   \\    /   O peration     | Website:  https://openfoam.org
    \\  /    A nd           | Version:  8
     \\/     M anipulation  |
\*---------------------------------------------------------------------------*/
FoamFile
{
    version     2.0;
    format      ascii;
    class       dictionary;
    location    "constant";
    object      combustionProperties;
}
// * * * * * * * * * * * * * * * * * * * * * * * * * * * * * * * * * * * * * //

#include        "combustionPropertiesInclude"

Su              Su [0 1 -1 0 0 0 0] 0.434;

SuModel         unstrained;

equivalenceRatio equivalenceRatio [0 0 0 0 0 0 0] 1;

sigmaExt        sigmaExt [0 0 -1 0 0 0 0] 100000;

XiModel         transport;

XiCoef          XiCoef [0 0 0 0 0 0 0] 1;

XiShapeCoef     XiShapeCoef [0 0 0 0 0 0 0] 1;

uPrimeCoef      uPrimeCoef [0 0 0 0 0 0 0] 1;

GuldersCoeffs
{
    Methane
    {
        W               0.422;
        eta             0.15;
        xi              5.18;
        alpha           2;
        beta            -0.5;
        f               2.3;
    }

    Propane
    {
        W               0.446;
        eta             0.12;
        xi              4.95;
        alpha           1.77;
        beta            -0.2;
        f               2.3;
    }

    IsoOctane
    {
        W               0.4658;
        eta             -0.326;
        xi              4.48;
        alpha           1.56;
        beta            -0.22;
        f               2.3;
    }
}


ignite          yes;

ignitionSites
(
    {
        location        (0.17 1.53 0.75);
        diameter        0.01;
        start           0;
        duration        0.01;
        strength        2;
    }
);

ignitionSphereFraction 1;

ignitionThickness ignitionThickness [0 1 0 0 0 0 0] 0.001;

ignitionCircleFraction 0.5;

ignitionKernelArea ignitionKernelArea [0 2 0 0 0 0 0] 0.001;


// ************************************************************************* //
